data_POSCAR\(1\1\1)
_audit_creation_date              2025-07-16
_audit_creation_method            'Materials Studio'
_symmetry_space_group_name_H-M    'P1'
_symmetry_Int_Tables_number       1
_symmetry_cell_setting            triclinic
loop_
_symmetry_equiv_pos_as_xyz
  x,y,z
_cell_length_a                    7.9836
_cell_length_b                    9.8813
_cell_length_c                    29.3229
_cell_angle_alpha                 90.0000
_cell_angle_beta                  90.0000
_cell_angle_gamma                 113.8269
loop_
_atom_site_label
_atom_site_type_symbol
_atom_site_fract_x
_atom_site_fract_y
_atom_site_fract_z
_atom_site_U_iso_or_equiv
_atom_site_adp_type
_atom_site_occupancy
Ti1    Ti    0.60974   0.21949   0.23882   0.00000  Uiso   1.00
Ti2    Ti    0.20726   0.41451   0.36096   0.00000  Uiso   1.00
Ti3    Ti    0.80477   0.60953   0.48310   0.00000  Uiso   1.00
Ti4    Ti    0.40228   0.80456   0.60524   0.00000  Uiso   1.00
Ti5    Ti    0.40900   0.81799   0.29974   0.00000  Uiso   1.00
Ti6    Ti    0.00651   0.01302   0.42188   0.00000  Uiso   1.00
Ti7    Ti    0.60402   0.20804   0.54402   0.00000  Uiso   1.00
Ti8    Ti    0.20153   0.40306   0.66615   0.00000  Uiso   1.00
Ti9    Ti    0.40866   0.31692   0.29984   0.00000  Uiso   1.00
Ti10   Ti    0.00617   0.51195   0.42198   0.00000  Uiso   1.00
Ti11   Ti    0.60368   0.70697   0.54412   0.00000  Uiso   1.00
Ti12   Ti    0.20119   0.90199   0.66626   0.00000  Uiso   1.00
Ti13   Ti    0.20791   0.91543   0.36076   0.00000  Uiso   1.00
Ti14   Ti    0.80542   0.11045   0.48290   0.00000  Uiso   1.00
Ti15   Ti    0.40293   0.30547   0.60504   0.00000  Uiso   1.00
Ti16   Ti    0.00045   0.50050   0.72718   0.00000  Uiso   1.00
Ti17   Ti    0.90826   0.31692   0.29984   0.00000  Uiso   1.00
Ti18   Ti    0.50578   0.51195   0.42198   0.00000  Uiso   1.00
Ti19   Ti    0.10329   0.70697   0.54412   0.00000  Uiso   1.00
Ti20   Ti    0.70080   0.90199   0.66626   0.00000  Uiso   1.00
Ti21   Ti    0.70752   0.91543   0.36076   0.00000  Uiso   1.00
Ti22   Ti    0.30503   0.11045   0.48290   0.00000  Uiso   1.00
Ti23   Ti    0.90254   0.30547   0.60504   0.00000  Uiso   1.00
Ti24   Ti    0.50005   0.50050   0.72718   0.00000  Uiso   1.00
Ti25   Ti    0.10967   0.21933   0.23872   0.00000  Uiso   1.00
Ti26   Ti    0.70718   0.41436   0.36086   0.00000  Uiso   1.00
Ti27   Ti    0.30469   0.60938   0.48300   0.00000  Uiso   1.00
Ti28   Ti    0.90220   0.80440   0.60514   0.00000  Uiso   1.00
Ti29   Ti    0.90892   0.81784   0.29964   0.00000  Uiso   1.00
Ti30   Ti    0.50643   0.01286   0.42178   0.00000  Uiso   1.00
Ti31   Ti    0.10394   0.20789   0.54392   0.00000  Uiso   1.00
Ti32   Ti    0.70145   0.40291   0.66606   0.00000  Uiso   1.00
Ga33   Ga    0.55809   0.11618   0.33030   0.00000  Uiso   1.00
Ga34   Ga    0.15560   0.31120   0.45244   0.00000  Uiso   1.00
Ga35   Ga    0.75311   0.50622   0.57458   0.00000  Uiso   1.00
Ga36   Ga    0.35062   0.70124   0.69672   0.00000  Uiso   1.00
Al37   Al    0.75933   0.51866   0.26923   0.00000  Uiso   1.00
Al38   Al    0.35684   0.71369   0.39137   0.00000  Uiso   1.00
Al39   Al    0.95435   0.90871   0.51351   0.00000  Uiso   1.00
Al40   Al    0.55187   0.10373   0.63565   0.00000  Uiso   1.00
Al41   Al    0.75933   0.01866   0.26923   0.00000  Uiso   1.00
Al42   Al    0.35684   0.21369   0.39137   0.00000  Uiso   1.00
Al43   Al    0.95435   0.40871   0.51351   0.00000  Uiso   1.00
Al44   Al    0.55187   0.60373   0.63565   0.00000  Uiso   1.00
Al45   Al    0.55809   0.61618   0.33030   0.00000  Uiso   1.00
Al46   Al    0.15560   0.81120   0.45244   0.00000  Uiso   1.00
Al47   Al    0.75311   0.00622   0.57458   0.00000  Uiso   1.00
Al48   Al    0.35062   0.20124   0.69672   0.00000  Uiso   1.00
Al49   Al    0.25933   0.01866   0.26923   0.00000  Uiso   1.00
Al50   Al    0.85684   0.21369   0.39137   0.00000  Uiso   1.00
Al51   Al    0.45435   0.40871   0.51351   0.00000  Uiso   1.00
Al52   Al    0.05187   0.60373   0.63565   0.00000  Uiso   1.00
Al53   Al    0.05809   0.61618   0.33030   0.00000  Uiso   1.00
Al54   Al    0.65560   0.81120   0.45244   0.00000  Uiso   1.00
Al55   Al    0.25311   0.00622   0.57458   0.00000  Uiso   1.00
Al56   Al    0.85062   0.20124   0.69672   0.00000  Uiso   1.00
Al57   Al    0.05809   0.11618   0.33030   0.00000  Uiso   1.00
Al58   Al    0.65560   0.31120   0.45244   0.00000  Uiso   1.00
Al59   Al    0.25311   0.50622   0.57458   0.00000  Uiso   1.00
Al60   Al    0.85062   0.70124   0.69672   0.00000  Uiso   1.00
Al61   Al    0.25933   0.51866   0.26923   0.00000  Uiso   1.00
Al62   Al    0.85684   0.71369   0.39137   0.00000  Uiso   1.00
Al63   Al    0.45435   0.90871   0.51351   0.00000  Uiso   1.00
Al64   Al    0.05187   0.10373   0.63565   0.00000  Uiso   1.00
